tests/data/power_flow/newton-raphson-initial-value/input.json
{
  "version": "1.0",
  "type": "input",
  "is_batch": false,
  "attributes": {},
  "data": {
    "node": [
      {
        "id": 0,
        "u_rated": 150000
      },
      {
        "id": 2,
        "u_rated": 10500
      },
      {
        "id": 4,
        "u_rated": 10500
      }
    ],
    "transformer": [
      {
        "id": 10,
        "from_node": 0,
        "to_node": 2,
        "from_status": 1,
        "to_status": 1,
        "u1": 150000,
        "u2": 11000,
        "sn": 12000000,
        "uk": 0.204,
        "pk": 60000,
        "i0": 0,
        "p0": 0,
        "winding_from": 1,
        "winding_to": 2,
        "clock": 5,
        "tap_side": 0,
        "tap_pos": -11,
        "tap_min": -11,
        "tap_max": 9,
        "tap_nom": 0,
        "tap_size": 2500,
        "uk_min": 0.204,
        "uk_max": 0.204,
        "pk_min": 60000,
        "pk_max": 60000,
        "r_grounding_from": 0,
        "x_grounding_from": 0
      },
      {
        "id": 13,
        "from_node": 2,
        "to_node": 4,
        "from_status": 1,
        "to_status": 1,
        "u1": 10500,
        "u2": 10500,
        "sn": 12000000,
        "uk": 0.005,
        "pk": 0,
        "i0": 0,
        "p0": 0,
        "winding_from": 0,
        "winding_to": 0,
        "clock": 0,
        "tap_side": 0,
        "tap_pos": 1,
        "tap_min": 1,
        "tap_max": 13,
        "tap_nom": 7,
        "tap_size": 150,
        "uk_min": 0.004500000000000001,
        "uk_max": 0.006,
        "pk_min": 0,
        "pk_max": 0,
        "r_grounding_from": 0,
        "x_grounding_from": 0,
        "r_grounding_to": 0,
        "x_grounding_to": 0
      }
    ],
    "source": [
      {
        "id": 14,
        "node": 0,
        "status": 1,
        "u_ref": 1,
        "sk": 1000000000000.0,
        "rx_ratio": 0.1,
        "z01_ratio": 3
      }
    ],
    "sym_load": [
      {
        "id": 17,
        "node": 4,
        "status": 1,
        "type": 0,
        "p_specified": 0,
        "q_specified": 0
      }
    ]
  }
}
